<?xml version="1.0" encoding="UTF-8"?>

<!-- generated on Mon 13 Sep 2021 07:58:19 AM UTC by Eclipse SUMO netedit Version 1.8.0
<configuration xmlns:xsi="http://www.w3.org/2001/XMLSchema-instance" xsi:noNamespaceSchemaLocation="http://sumo.dlr.de/xsd/netconvertConfiguration.xsd">

    <input>
        <sumo-net-file value="/home/plexe/src/plexe/examples/platooning/sumocfg/freeway.net.xml"/>
    </input>

    <output>
        <output-file value="/home/plexe/src/plexe/examples/platooning/sumocfg/freeway.net.xml"/>
    </output>

    <processing>
        <geometry.min-radius.fix.railways value="false"/>
        <geometry.max-grade.fix value="false"/>
        <offset.disable-normalization value="true"/>
        <lefthand value="false"/>
    </processing>

    <junctions>
        <no-turnarounds value="true"/>
        <junctions.corner-detail value="0"/>
        <junctions.limit-turn-speed value="-1"/>
        <rectangular-lane-cut value="false"/>
    </junctions>

    <pedestrian>
        <walkingareas value="false"/>
    </pedestrian>

    <report>
        <aggregate-warnings value="5"/>
    </report>

</configuration>
-->

<net version="1.6" xmlns:xsi="http://www.w3.org/2001/XMLSchema-instance" xsi:noNamespaceSchemaLocation="http://sumo.dlr.de/xsd/net_file.xsd">

    <location netOffset="0.00,254.00" convBoundary="0.00,0.00,50000.00,315.00" origBoundary="0.00,-254.00,50000.00,0.00" projParameter="!"/>

    <edge id=":gneJ0_0" function="internal">
        <lane id=":gneJ0_0_0" index="0" speed="13.89" length="10.21" shape="2998.50,242.80 3001.20,243.55 3002.94,245.06 3004.63,246.26 3007.15,246.06"/>
        <lane id=":gneJ0_0_1" index="1" speed="13.89" length="10.21" shape="2998.50,246.00 3001.53,246.74 3003.54,248.22 3005.48,249.35 3008.31,249.04"/>
    </edge>
    <edge id=":gneJ0_2" function="internal">
        <lane id=":gneJ0_2_0" index="0" speed="13.89" length="10.52" shape="2998.50,249.20 3001.52,249.45 3003.50,250.21 3005.34,251.47 3007.94,253.22"/>
    </edge>
    <edge id=":gneJ0_3" function="internal">
        <lane id=":gneJ0_3_0" index="0" speed="13.89" length="8.77" shape="2998.50,252.40 3001.01,252.64 3002.62,253.34 3004.12,254.46 3006.28,255.96"/>
    </edge>
    <edge id=":gneJ2_0" function="internal">
        <lane id=":gneJ2_0_0" index="0" speed="13.89" length="6.58" shape="3099.60,309.13 3101.17,309.84 3102.72,310.04 3104.26,309.73 3105.77,308.91"/>
    </edge>
    <edge id=":gneJ2_1" function="internal">
        <lane id=":gneJ2_1_0" index="0" speed="13.89" length="9.54" shape="3097.93,311.87 3100.39,313.13 3102.27,313.54 3104.28,313.50 3107.12,313.40"/>
    </edge>
    <edge id=":gneJ3_0" function="internal">
        <lane id=":gneJ3_0_0" index="0" speed="13.89" length="18.77" shape="3089.16,214.08 3094.99,212.55 3099.77,212.48 3103.88,213.03 3107.67,213.40"/>
    </edge>
    <edge id=":gneJ3_1" function="internal">
        <lane id=":gneJ3_1_0" index="0" speed="13.89" length="16.70" shape="3090.32,217.06 3095.03,215.64 3099.28,215.25 3103.04,215.89 3106.34,217.56"/>
    </edge>
    <edge id=":gneJ4_0" function="internal">
        <lane id=":gneJ4_0_0" index="0" speed="13.89" length="8.48" shape="3235.23,309.63 3237.20,311.22 3238.59,312.41 3240.12,313.15 3242.53,313.40"/>
    </edge>
    <edge id=":gneJ4_1" function="internal">
        <lane id=":gneJ4_1_0" index="0" speed="13.89" length="8.51" shape="3234.02,313.40 3242.53,313.40"/>
    </edge>
    <edge id=":gneJ5_0" function="internal">
        <lane id=":gneJ5_0_0" index="0" speed="13.89" length="8.51" shape="3232.99,213.40 3241.50,213.40"/>
    </edge>
    <edge id=":gneJ5_1" function="internal">
        <lane id=":gneJ5_1_0" index="0" speed="13.89" length="8.48" shape="3234.20,217.17 3236.18,215.58 3237.57,214.39 3239.10,213.65 3241.50,213.40"/>
    </edge>
    <edge id=":node_0_1_0" function="internal">
        <lane id=":node_0_1_0_0" index="0" speed="52.00" length="9.22" shape="996.00,249.20 998.69,248.20 1000.00,246.00 1001.31,243.80 1004.00,242.80"/>
        <lane id=":node_0_1_0_1" index="1" speed="52.00" length="9.22" shape="996.00,252.40 998.46,251.90 1000.00,250.80 1001.54,249.70 1004.00,249.20"/>
        <lane id=":node_0_1_0_2" index="2" speed="52.00" length="9.22" shape="996.00,252.40 1004.00,252.40"/>
    </edge>
    <edge id=":node_2_2_0" function="internal">
        <lane id=":node_2_2_0_0" index="0" speed="57.55" length="3.71" shape="29623.34,239.60 29624.44,239.58 29625.20,239.49 29625.91,239.24 29626.90,238.76"/>
    </edge>
    <edge id=":node_2_2_1" function="internal">
        <lane id=":node_2_2_1_0" index="0" speed="90.11" length="3.76" shape="29623.34,242.80 29627.10,242.80"/>
        <lane id=":node_2_2_1_1" index="1" speed="90.11" length="3.76" shape="29623.34,246.00 29627.10,246.00"/>
        <lane id=":node_2_2_1_2" index="2" speed="90.11" length="3.76" shape="29623.34,249.20 29627.10,249.20"/>
        <lane id=":node_2_2_1_3" index="3" speed="90.11" length="3.76" shape="29623.34,252.40 29627.10,252.40"/>
    </edge>
    <edge id=":node_2_3_0" function="internal">
        <lane id=":node_2_3_0_0" index="0" speed="57.55" length="3.71" shape="29773.10,238.76 29774.09,239.24 29774.80,239.49 29775.56,239.58 29776.66,239.60"/>
    </edge>
    <edge id=":node_2_3_1" function="internal">
        <lane id=":node_2_3_1_0" index="0" speed="90.11" length="3.76" shape="29772.90,242.80 29776.66,242.80"/>
        <lane id=":node_2_3_1_1" index="1" speed="90.11" length="3.76" shape="29772.90,246.00 29776.66,246.00"/>
        <lane id=":node_2_3_1_2" index="2" speed="90.11" length="3.76" shape="29772.90,249.20 29776.66,249.20"/>
        <lane id=":node_2_3_1_3" index="3" speed="90.11" length="3.76" shape="29772.90,252.40 29776.66,252.40"/>
    </edge>
    <edge id=":node_2_4_0" function="internal">
        <lane id=":node_2_4_0_0" index="0" speed="90.11" length="8.00" shape="29996.00,242.80 30004.00,242.80"/>
        <lane id=":node_2_4_0_1" index="1" speed="90.11" length="8.00" shape="29996.00,246.00 30004.00,246.00"/>
        <lane id=":node_2_4_0_2" index="2" speed="90.11" length="8.00" shape="29996.00,249.20 30004.00,249.20"/>
        <lane id=":node_2_4_0_3" index="3" speed="90.11" length="8.00" shape="29996.00,252.40 30004.00,252.40"/>
    </edge>
    <edge id=":node_2_5_0" function="internal">
        <lane id=":node_2_5_0_0" index="0" speed="25.00" length="6.22" shape="29701.60,199.55 29701.79,201.16 29702.37,202.53 29703.34,203.67 29704.70,204.56"/>
    </edge>
    <edge id=":node_2_5_1" function="internal">
        <lane id=":node_2_5_1_0" index="0" speed="25.00" length="2.53" shape="29701.60,199.55 29700.80,200.75 29700.00,201.15 29699.83,201.06"/>
    </edge>
    <edge id=":node_2_5_4" function="internal">
        <lane id=":node_2_5_4_0" index="0" speed="25.00" length="2.15" shape="29699.83,201.06 29699.20,200.75 29698.40,199.55"/>
    </edge>
    <edge id=":node_2_5_2" function="internal">
        <lane id=":node_2_5_2_0" index="0" speed="25.00" length="6.22" shape="29695.30,204.56 29696.66,203.67 29697.63,202.53 29698.21,201.16 29698.40,199.55"/>
    </edge>
    <edge id=":node_2_5_3" function="internal">
        <lane id=":node_2_5_3_0" index="0" speed="25.00" length="6.00" shape="29695.30,204.56 29697.65,203.68 29700.00,203.39 29701.12,203.52"/>
    </edge>
    <edge id=":node_2_5_5" function="internal">
        <lane id=":node_2_5_5_0" index="0" speed="25.00" length="3.75" shape="29701.12,203.52 29702.35,203.68 29704.70,204.56"/>
    </edge>
    <edge id=":node_2_6_0" function="internal">
        <lane id=":node_2_6_0_0" index="0" speed="25.00" length="0.10" shape="29698.40,4.00 29698.40,4.00"/>
    </edge>
    <edge id=":node_2_6_1" function="internal">
        <lane id=":node_2_6_1_0" index="0" speed="25.00" length="2.34" shape="29698.40,4.00 29699.20,2.80 29700.00,2.40"/>
    </edge>
    <edge id=":node_2_6_4" function="internal">
        <lane id=":node_2_6_4_0" index="0" speed="25.00" length="2.34" shape="29700.00,2.40 29700.80,2.80 29701.60,4.00"/>
    </edge>
    <edge id=":node_2_6_2" function="internal">
        <lane id=":node_2_6_2_0" index="0" speed="25.00" length="0.10" shape="29701.60,4.00 29701.60,4.00"/>
    </edge>
    <edge id=":node_2_6_3" function="internal">
        <lane id=":node_2_6_3_0" index="0" speed="25.00" length="2.34" shape="29701.60,4.00 29700.80,5.20 29700.00,5.60"/>
    </edge>
    <edge id=":node_2_6_5" function="internal">
        <lane id=":node_2_6_5_0" index="0" speed="25.00" length="2.34" shape="29700.00,5.60 29699.20,5.20 29698.40,4.00"/>
    </edge>
    <edge id=":node_2_7_0" function="internal">
        <lane id=":node_2_7_0_0" index="0" speed="25.00" length="4.67" shape="29698.40,0.00 29699.20,-1.20 29700.00,-1.60 29700.80,-1.20 29701.60,0.00"/>
    </edge>
    <edge id=":node_3_1_0" function="internal">
        <lane id=":node_3_1_0_0" index="0" speed="90.11" length="8.16" shape="39396.00,242.80 39398.46,242.30 39400.00,241.20 39401.54,240.10 39404.00,239.60"/>
        <lane id=":node_3_1_0_1" index="1" speed="90.11" length="8.16" shape="39396.00,242.80 39404.00,242.80"/>
        <lane id=":node_3_1_0_2" index="2" speed="90.11" length="8.16" shape="39396.00,246.00 39404.00,246.00"/>
        <lane id=":node_3_1_0_3" index="3" speed="90.11" length="8.16" shape="39396.00,249.20 39404.00,249.20"/>
        <lane id=":node_3_1_0_4" index="4" speed="90.11" length="8.16" shape="39396.00,252.40 39404.00,252.40"/>
    </edge>
    <edge id=":node_3_2_0" function="internal">
        <lane id=":node_3_2_0_0" index="0" speed="57.55" length="3.71" shape="39623.34,239.60 39624.44,239.58 39625.20,239.49 39625.91,239.24 39626.90,238.76"/>
    </edge>
    <edge id=":node_3_2_1" function="internal">
        <lane id=":node_3_2_1_0" index="0" speed="90.11" length="3.76" shape="39623.34,242.80 39627.10,242.80"/>
        <lane id=":node_3_2_1_1" index="1" speed="90.11" length="3.76" shape="39623.34,246.00 39627.10,246.00"/>
        <lane id=":node_3_2_1_2" index="2" speed="90.11" length="3.76" shape="39623.34,249.20 39627.10,249.20"/>
        <lane id=":node_3_2_1_3" index="3" speed="90.11" length="3.76" shape="39623.34,252.40 39627.10,252.40"/>
    </edge>
    <edge id=":node_3_3_0" function="internal">
        <lane id=":node_3_3_0_0" index="0" speed="57.55" length="3.71" shape="39773.10,238.76 39774.09,239.24 39774.80,239.49 39775.56,239.58 39776.66,239.60"/>
    </edge>
    <edge id=":node_3_3_1" function="internal">
        <lane id=":node_3_3_1_0" index="0" speed="90.11" length="3.76" shape="39772.90,242.80 39776.66,242.80"/>
        <lane id=":node_3_3_1_1" index="1" speed="90.11" length="3.76" shape="39772.90,246.00 39776.66,246.00"/>
        <lane id=":node_3_3_1_2" index="2" speed="90.11" length="3.76" shape="39772.90,249.20 39776.66,249.20"/>
        <lane id=":node_3_3_1_3" index="3" speed="90.11" length="3.76" shape="39772.90,252.40 39776.66,252.40"/>
    </edge>
    <edge id=":node_3_4_0" function="internal">
        <lane id=":node_3_4_0_0" index="0" speed="90.11" length="8.00" shape="39996.00,242.80 40004.00,242.80"/>
        <lane id=":node_3_4_0_1" index="1" speed="90.11" length="8.00" shape="39996.00,246.00 40004.00,246.00"/>
        <lane id=":node_3_4_0_2" index="2" speed="90.11" length="8.00" shape="39996.00,249.20 40004.00,249.20"/>
        <lane id=":node_3_4_0_3" index="3" speed="90.11" length="8.00" shape="39996.00,252.40 40004.00,252.40"/>
    </edge>
    <edge id=":node_3_5_0" function="internal">
        <lane id=":node_3_5_0_0" index="0" speed="25.00" length="6.22" shape="39701.60,199.55 39701.79,201.16 39702.37,202.53 39703.34,203.67 39704.70,204.56"/>
    </edge>
    <edge id=":node_3_5_1" function="internal">
        <lane id=":node_3_5_1_0" index="0" speed="25.00" length="2.53" shape="39701.60,199.55 39700.80,200.75 39700.00,201.15 39699.83,201.06"/>
    </edge>
    <edge id=":node_3_5_4" function="internal">
        <lane id=":node_3_5_4_0" index="0" speed="25.00" length="2.15" shape="39699.83,201.06 39699.20,200.75 39698.40,199.55"/>
    </edge>
    <edge id=":node_3_5_2" function="internal">
        <lane id=":node_3_5_2_0" index="0" speed="25.00" length="6.22" shape="39695.30,204.56 39696.66,203.67 39697.63,202.53 39698.21,201.16 39698.40,199.55"/>
    </edge>
    <edge id=":node_3_5_3" function="internal">
        <lane id=":node_3_5_3_0" index="0" speed="25.00" length="6.00" shape="39695.30,204.56 39697.65,203.68 39700.00,203.39 39701.12,203.52"/>
    </edge>
    <edge id=":node_3_5_5" function="internal">
        <lane id=":node_3_5_5_0" index="0" speed="25.00" length="3.75" shape="39701.12,203.52 39702.35,203.68 39704.70,204.56"/>
    </edge>
    <edge id=":node_3_6_0" function="internal">
        <lane id=":node_3_6_0_0" index="0" speed="25.00" length="0.10" shape="39698.40,4.00 39698.40,4.00"/>
    </edge>
    <edge id=":node_3_6_1" function="internal">
        <lane id=":node_3_6_1_0" index="0" speed="25.00" length="2.34" shape="39698.40,4.00 39699.20,2.80 39700.00,2.40"/>
    </edge>
    <edge id=":node_3_6_4" function="internal">
        <lane id=":node_3_6_4_0" index="0" speed="25.00" length="2.34" shape="39700.00,2.40 39700.80,2.80 39701.60,4.00"/>
    </edge>
    <edge id=":node_3_6_2" function="internal">
        <lane id=":node_3_6_2_0" index="0" speed="25.00" length="0.10" shape="39701.60,4.00 39701.60,4.00"/>
    </edge>
    <edge id=":node_3_6_3" function="internal">
        <lane id=":node_3_6_3_0" index="0" speed="25.00" length="2.34" shape="39701.60,4.00 39700.80,5.20 39700.00,5.60"/>
    </edge>
    <edge id=":node_3_6_5" function="internal">
        <lane id=":node_3_6_5_0" index="0" speed="25.00" length="2.34" shape="39700.00,5.60 39699.20,5.20 39698.40,4.00"/>
    </edge>
    <edge id=":node_3_7_0" function="internal">
        <lane id=":node_3_7_0_0" index="0" speed="25.00" length="4.67" shape="39698.40,0.00 39699.20,-1.20 39700.00,-1.60 39700.80,-1.20 39701.60,0.00"/>
    </edge>
    <edge id=":node_4_1_0" function="internal">
        <lane id=":node_4_1_0_0" index="0" speed="90.11" length="8.16" shape="49396.00,242.80 49398.46,242.30 49400.00,241.20 49401.54,240.10 49404.00,239.60"/>
        <lane id=":node_4_1_0_1" index="1" speed="90.11" length="8.16" shape="49396.00,242.80 49404.00,242.80"/>
        <lane id=":node_4_1_0_2" index="2" speed="90.11" length="8.16" shape="49396.00,246.00 49404.00,246.00"/>
        <lane id=":node_4_1_0_3" index="3" speed="90.11" length="8.16" shape="49396.00,249.20 49404.00,249.20"/>
        <lane id=":node_4_1_0_4" index="4" speed="90.11" length="8.16" shape="49396.00,252.40 49404.00,252.40"/>
    </edge>
    <edge id=":node_4_2_0" function="internal">
        <lane id=":node_4_2_0_0" index="0" speed="57.55" length="3.71" shape="49623.34,239.60 49624.44,239.58 49625.20,239.49 49625.91,239.24 49626.90,238.76"/>
    </edge>
    <edge id=":node_4_2_1" function="internal">
        <lane id=":node_4_2_1_0" index="0" speed="90.11" length="3.76" shape="49623.34,242.80 49627.10,242.80"/>
        <lane id=":node_4_2_1_1" index="1" speed="90.11" length="3.76" shape="49623.34,246.00 49627.10,246.00"/>
        <lane id=":node_4_2_1_2" index="2" speed="90.11" length="3.76" shape="49623.34,249.20 49627.10,249.20"/>
        <lane id=":node_4_2_1_3" index="3" speed="90.11" length="3.76" shape="49623.34,252.40 49627.10,252.40"/>
    </edge>
    <edge id=":node_4_3_0" function="internal">
        <lane id=":node_4_3_0_0" index="0" speed="57.55" length="3.71" shape="49773.10,238.76 49774.09,239.24 49774.80,239.49 49775.56,239.58 49776.66,239.60"/>
    </edge>
    <edge id=":node_4_3_1" function="internal">
        <lane id=":node_4_3_1_0" index="0" speed="90.11" length="3.76" shape="49772.90,242.80 49776.66,242.80"/>
        <lane id=":node_4_3_1_1" index="1" speed="90.11" length="3.76" shape="49772.90,246.00 49776.66,246.00"/>
        <lane id=":node_4_3_1_2" index="2" speed="90.11" length="3.76" shape="49772.90,249.20 49776.66,249.20"/>
        <lane id=":node_4_3_1_3" index="3" speed="90.11" length="3.76" shape="49772.90,252.40 49776.66,252.40"/>
    </edge>
    <edge id=":node_4_5_0" function="internal">
        <lane id=":node_4_5_0_0" index="0" speed="25.00" length="6.22" shape="49701.60,199.55 49701.79,201.16 49702.37,202.53 49703.34,203.67 49704.70,204.56"/>
    </edge>
    <edge id=":node_4_5_1" function="internal">
        <lane id=":node_4_5_1_0" index="0" speed="25.00" length="2.53" shape="49701.60,199.55 49700.80,200.75 49700.00,201.15 49699.83,201.06"/>
    </edge>
    <edge id=":node_4_5_4" function="internal">
        <lane id=":node_4_5_4_0" index="0" speed="25.00" length="2.15" shape="49699.83,201.06 49699.20,200.75 49698.40,199.55"/>
    </edge>
    <edge id=":node_4_5_2" function="internal">
        <lane id=":node_4_5_2_0" index="0" speed="25.00" length="6.22" shape="49695.30,204.56 49696.66,203.67 49697.63,202.53 49698.21,201.16 49698.40,199.55"/>
    </edge>
    <edge id=":node_4_5_3" function="internal">
        <lane id=":node_4_5_3_0" index="0" speed="25.00" length="6.00" shape="49695.30,204.56 49697.65,203.68 49700.00,203.39 49701.12,203.52"/>
    </edge>
    <edge id=":node_4_5_5" function="internal">
        <lane id=":node_4_5_5_0" index="0" speed="25.00" length="3.75" shape="49701.12,203.52 49702.35,203.68 49704.70,204.56"/>
    </edge>
    <edge id=":node_4_6_0" function="internal">
        <lane id=":node_4_6_0_0" index="0" speed="25.00" length="0.10" shape="49698.40,4.00 49698.40,4.00"/>
    </edge>
    <edge id=":node_4_6_1" function="internal">
        <lane id=":node_4_6_1_0" index="0" speed="25.00" length="2.34" shape="49698.40,4.00 49699.20,2.80 49700.00,2.40"/>
    </edge>
    <edge id=":node_4_6_4" function="internal">
        <lane id=":node_4_6_4_0" index="0" speed="25.00" length="2.34" shape="49700.00,2.40 49700.80,2.80 49701.60,4.00"/>
    </edge>
    <edge id=":node_4_6_2" function="internal">
        <lane id=":node_4_6_2_0" index="0" speed="25.00" length="0.10" shape="49701.60,4.00 49701.60,4.00"/>
    </edge>
    <edge id=":node_4_6_3" function="internal">
        <lane id=":node_4_6_3_0" index="0" speed="25.00" length="2.34" shape="49701.60,4.00 49700.80,5.20 49700.00,5.60"/>
    </edge>
    <edge id=":node_4_6_5" function="internal">
        <lane id=":node_4_6_5_0" index="0" speed="25.00" length="2.34" shape="49700.00,5.60 49699.20,5.20 49698.40,4.00"/>
    </edge>
    <edge id=":node_4_7_0" function="internal">
        <lane id=":node_4_7_0_0" index="0" speed="25.00" length="4.67" shape="49698.40,0.00 49699.20,-1.20 49700.00,-1.60 49700.80,-1.20 49701.60,0.00"/>
    </edge>

    <edge id="absorption_2" from="node_2_6" to="node_2_7" priority="7">
        <lane id="absorption_2_0" index="0" speed="25.00" length="4.00" shape="29698.40,4.00 29698.40,0.00"/>
    </edge>
    <edge id="absorption_3" from="node_3_6" to="node_3_7" priority="7">
        <lane id="absorption_3_0" index="0" speed="25.00" length="4.00" shape="39698.40,4.00 39698.40,0.00"/>
    </edge>
    <edge id="absorption_4" from="node_4_6" to="node_4_7" priority="7">
        <lane id="absorption_4_0" index="0" speed="25.00" length="4.00" shape="49698.40,4.00 49698.40,0.00"/>
    </edge>
    <edge id="edge_0_0" from="node_0_0" to="node_0_1" priority="7">
        <lane id="edge_0_0_0" index="0" speed="90.11" length="996.00" shape="0.00,249.20 996.00,249.20"/>
        <lane id="edge_0_0_1" index="1" speed="90.11" length="996.00" shape="0.00,252.40 996.00,252.40"/>
    </edge>
    <edge id="edge_2_1" from="node_2_1" to="node_2_2" priority="7">
        <lane id="edge_2_1_0" index="0" speed="90.11" length="223.34" shape="29400.00,239.60 29623.34,239.60"/>
        <lane id="edge_2_1_1" index="1" speed="90.11" length="223.34" shape="29400.00,242.80 29623.34,242.80"/>
        <lane id="edge_2_1_2" index="2" speed="90.11" length="223.34" shape="29400.00,246.00 29623.34,246.00"/>
        <lane id="edge_2_1_3" index="3" speed="90.11" length="223.34" shape="29400.00,249.20 29623.34,249.20"/>
        <lane id="edge_2_1_4" index="4" speed="90.11" length="223.34" shape="29400.00,252.40 29623.34,252.40"/>
    </edge>
    <edge id="edge_2_2" from="node_2_2" to="node_2_3" priority="7">
        <lane id="edge_2_2_0" index="0" speed="90.11" length="145.80" shape="29627.10,242.80 29772.90,242.80"/>
        <lane id="edge_2_2_1" index="1" speed="90.11" length="145.80" shape="29627.10,246.00 29772.90,246.00"/>
        <lane id="edge_2_2_2" index="2" speed="90.11" length="145.80" shape="29627.10,249.20 29772.90,249.20"/>
        <lane id="edge_2_2_3" index="3" speed="90.11" length="145.80" shape="29627.10,252.40 29772.90,252.40"/>
    </edge>
    <edge id="edge_2_3" from="node_2_3" to="node_2_4" priority="7">
        <lane id="edge_2_3_0" index="0" speed="90.11" length="219.34" acceleration="1" shape="29776.66,239.60 29996.00,239.60"/>
        <lane id="edge_2_3_1" index="1" speed="90.11" length="219.34" shape="29776.66,242.80 29996.00,242.80"/>
        <lane id="edge_2_3_2" index="2" speed="90.11" length="219.34" shape="29776.66,246.00 29996.00,246.00"/>
        <lane id="edge_2_3_3" index="3" speed="90.11" length="219.34" shape="29776.66,249.20 29996.00,249.20"/>
        <lane id="edge_2_3_4" index="4" speed="90.11" length="219.34" shape="29776.66,252.40 29996.00,252.40"/>
    </edge>
    <edge id="edge_2_4" from="node_2_2" to="node_2_5" priority="7">
        <lane id="edge_2_4_0" index="0" speed="25.00" length="76.48" shape="29626.90,238.76 29695.30,204.56"/>
    </edge>
    <edge id="edge_2_5" from="node_2_5" to="node_2_3" priority="7">
        <lane id="edge_2_5_0" index="0" speed="25.00" length="76.48" shape="29704.70,204.56 29773.10,238.76"/>
    </edge>
    <edge id="edge_2_6" from="node_2_5" to="node_2_6" priority="7">
        <lane id="edge_2_6_0" index="0" speed="25.00" length="195.55" shape="29698.40,199.55 29698.40,4.00"/>
    </edge>
    <edge id="edge_2_7" from="node_2_6" to="node_2_5" priority="7">
        <lane id="edge_2_7_0" index="0" speed="25.00" length="195.55" shape="29701.60,4.00 29701.60,199.55"/>
    </edge>
    <edge id="edge_3_0" from="node_2_4" to="node_3_1" priority="7">
        <lane id="edge_3_0_0" index="0" speed="90.11" length="9392.00" shape="30004.00,242.80 39396.00,242.80"/>
        <lane id="edge_3_0_1" index="1" speed="90.11" length="9392.00" shape="30004.00,246.00 39396.00,246.00"/>
        <lane id="edge_3_0_2" index="2" speed="90.11" length="9392.00" shape="30004.00,249.20 39396.00,249.20"/>
        <lane id="edge_3_0_3" index="3" speed="90.11" length="9392.00" shape="30004.00,252.40 39396.00,252.40"/>
    </edge>
    <edge id="edge_3_1" from="node_3_1" to="node_3_2" priority="7">
        <lane id="edge_3_1_0" index="0" speed="90.11" length="219.34" shape="39404.00,239.60 39623.34,239.60"/>
        <lane id="edge_3_1_1" index="1" speed="90.11" length="219.34" shape="39404.00,242.80 39623.34,242.80"/>
        <lane id="edge_3_1_2" index="2" speed="90.11" length="219.34" shape="39404.00,246.00 39623.34,246.00"/>
        <lane id="edge_3_1_3" index="3" speed="90.11" length="219.34" shape="39404.00,249.20 39623.34,249.20"/>
        <lane id="edge_3_1_4" index="4" speed="90.11" length="219.34" shape="39404.00,252.40 39623.34,252.40"/>
    </edge>
    <edge id="edge_3_2" from="node_3_2" to="node_3_3" priority="7">
        <lane id="edge_3_2_0" index="0" speed="90.11" length="145.80" shape="39627.10,242.80 39772.90,242.80"/>
        <lane id="edge_3_2_1" index="1" speed="90.11" length="145.80" shape="39627.10,246.00 39772.90,246.00"/>
        <lane id="edge_3_2_2" index="2" speed="90.11" length="145.80" shape="39627.10,249.20 39772.90,249.20"/>
        <lane id="edge_3_2_3" index="3" speed="90.11" length="145.80" shape="39627.10,252.40 39772.90,252.40"/>
    </edge>
    <edge id="edge_3_3" from="node_3_3" to="node_3_4" priority="7">
        <lane id="edge_3_3_0" index="0" speed="90.11" length="219.34" acceleration="1" shape="39776.66,239.60 39996.00,239.60"/>
        <lane id="edge_3_3_1" index="1" speed="90.11" length="219.34" shape="39776.66,242.80 39996.00,242.80"/>
        <lane id="edge_3_3_2" index="2" speed="90.11" length="219.34" shape="39776.66,246.00 39996.00,246.00"/>
        <lane id="edge_3_3_3" index="3" speed="90.11" length="219.34" shape="39776.66,249.20 39996.00,249.20"/>
        <lane id="edge_3_3_4" index="4" speed="90.11" length="219.34" shape="39776.66,252.40 39996.00,252.40"/>
    </edge>
    <edge id="edge_3_4" from="node_3_2" to="node_3_5" priority="7">
        <lane id="edge_3_4_0" index="0" speed="25.00" length="76.48" shape="39626.90,238.76 39695.30,204.56"/>
    </edge>
    <edge id="edge_3_5" from="node_3_5" to="node_3_3" priority="7">
        <lane id="edge_3_5_0" index="0" speed="25.00" length="76.48" shape="39704.70,204.56 39773.10,238.76"/>
    </edge>
    <edge id="edge_3_6" from="node_3_5" to="node_3_6" priority="7">
        <lane id="edge_3_6_0" index="0" speed="25.00" length="195.55" shape="39698.40,199.55 39698.40,4.00"/>
    </edge>
    <edge id="edge_3_7" from="node_3_6" to="node_3_5" priority="7">
        <lane id="edge_3_7_0" index="0" speed="25.00" length="195.55" shape="39701.60,4.00 39701.60,199.55"/>
    </edge>
    <edge id="edge_4_0" from="node_3_4" to="node_4_1" priority="7">
        <lane id="edge_4_0_0" index="0" speed="90.11" length="9392.00" shape="40004.00,242.80 49396.00,242.80"/>
        <lane id="edge_4_0_1" index="1" speed="90.11" length="9392.00" shape="40004.00,246.00 49396.00,246.00"/>
        <lane id="edge_4_0_2" index="2" speed="90.11" length="9392.00" shape="40004.00,249.20 49396.00,249.20"/>
        <lane id="edge_4_0_3" index="3" speed="90.11" length="9392.00" shape="40004.00,252.40 49396.00,252.40"/>
    </edge>
    <edge id="edge_4_1" from="node_4_1" to="node_4_2" priority="7">
        <lane id="edge_4_1_0" index="0" speed="90.11" length="219.34" shape="49404.00,239.60 49623.34,239.60"/>
        <lane id="edge_4_1_1" index="1" speed="90.11" length="219.34" shape="49404.00,242.80 49623.34,242.80"/>
        <lane id="edge_4_1_2" index="2" speed="90.11" length="219.34" shape="49404.00,246.00 49623.34,246.00"/>
        <lane id="edge_4_1_3" index="3" speed="90.11" length="219.34" shape="49404.00,249.20 49623.34,249.20"/>
        <lane id="edge_4_1_4" index="4" speed="90.11" length="219.34" shape="49404.00,252.40 49623.34,252.40"/>
    </edge>
    <edge id="edge_4_2" from="node_4_2" to="node_4_3" priority="7">
        <lane id="edge_4_2_0" index="0" speed="90.11" length="145.80" shape="49627.10,242.80 49772.90,242.80"/>
        <lane id="edge_4_2_1" index="1" speed="90.11" length="145.80" shape="49627.10,246.00 49772.90,246.00"/>
        <lane id="edge_4_2_2" index="2" speed="90.11" length="145.80" shape="49627.10,249.20 49772.90,249.20"/>
        <lane id="edge_4_2_3" index="3" speed="90.11" length="145.80" shape="49627.10,252.40 49772.90,252.40"/>
    </edge>
    <edge id="edge_4_3" from="node_4_3" to="node_4_4" priority="7">
        <lane id="edge_4_3_0" index="0" speed="90.11" length="223.34" acceleration="1" shape="49776.66,239.60 50000.00,239.60"/>
        <lane id="edge_4_3_1" index="1" speed="90.11" length="223.34" shape="49776.66,242.80 50000.00,242.80"/>
        <lane id="edge_4_3_2" index="2" speed="90.11" length="223.34" shape="49776.66,246.00 50000.00,246.00"/>
        <lane id="edge_4_3_3" index="3" speed="90.11" length="223.34" shape="49776.66,249.20 50000.00,249.20"/>
        <lane id="edge_4_3_4" index="4" speed="90.11" length="223.34" shape="49776.66,252.40 50000.00,252.40"/>
    </edge>
    <edge id="edge_4_4" from="node_4_2" to="node_4_5" priority="7">
        <lane id="edge_4_4_0" index="0" speed="25.00" length="76.48" shape="49626.90,238.76 49695.30,204.56"/>
    </edge>
    <edge id="edge_4_5" from="node_4_5" to="node_4_3" priority="7">
        <lane id="edge_4_5_0" index="0" speed="25.00" length="76.48" shape="49704.70,204.56 49773.10,238.76"/>
    </edge>
    <edge id="edge_4_6" from="node_4_5" to="node_4_6" priority="7">
        <lane id="edge_4_6_0" index="0" speed="25.00" length="195.55" shape="49698.40,199.55 49698.40,4.00"/>
    </edge>
    <edge id="edge_4_7" from="node_4_6" to="node_4_5" priority="7">
        <lane id="edge_4_7_0" index="0" speed="25.00" length="195.55" shape="49701.60,4.00 49701.60,199.55"/>
    </edge>
    <edge id="generation_2" from="node_2_7" to="node_2_6" priority="7">
        <lane id="generation_2_0" index="0" speed="25.00" length="4.00" shape="29701.60,0.00 29701.60,4.00"/>
    </edge>
    <edge id="generation_3" from="node_3_7" to="node_3_6" priority="7">
        <lane id="generation_3_0" index="0" speed="25.00" length="4.00" shape="39701.60,0.00 39701.60,4.00"/>
    </edge>
    <edge id="generation_4" from="node_4_7" to="node_4_6" priority="7">
        <lane id="generation_4_0" index="0" speed="25.00" length="4.00" shape="49701.60,0.00 49701.60,4.00"/>
    </edge>
    <edge id="gneE0" from="node_0_1" to="gneJ0" priority="-1">
        <lane id="gneE0_0" index="0" speed="13.89" length="1994.50" shape="1004.00,242.80 2998.50,242.80"/>
        <lane id="gneE0_1" index="1" speed="13.89" length="1994.50" shape="1004.00,246.00 2998.50,246.00"/>
        <lane id="gneE0_2" index="2" speed="13.89" length="1994.50" shape="1004.00,249.20 2998.50,249.20"/>
        <lane id="gneE0_3" index="3" speed="13.89" length="1994.50" shape="1004.00,252.40 2998.50,252.40"/>
    </edge>
    <edge id="gneE2" from="gneJ0" to="gneJ2" priority="-1">
        <lane id="gneE2_0" index="0" speed="13.89" length="107.36" shape="3007.94,253.22 3099.60,309.13"/>
        <lane id="gneE2_1" index="1" speed="13.89" length="107.36" shape="3006.28,255.96 3097.93,311.87"/>
    </edge>
    <edge id="gneE3" from="gneJ0" to="gneJ3" priority="-1">
        <lane id="gneE3_0" index="0" speed="13.89" length="88.02" shape="3007.15,246.06 3089.16,214.08"/>
        <lane id="gneE3_1" index="1" speed="13.89" length="88.02" shape="3008.31,249.04 3090.32,217.06"/>
    </edge>